*KEYWORD
$> Include file: C:\Users\Admin\LSDyna\Yaris_Detailed_Model\2010-toyota-yaris-detailed-v2j\2010_toyota_yaris_model_pedpro_18Feb\Updated_Model\set-yaris-detailed-v2j_001.key
$> (Used by master file: C:\Users\Admin\LSDyna\Yaris_Detailed_Model\2010-toyota-yaris-detailed-v2j\2010_toyota_yaris_model_pedpro_18Feb\Updated_Model\Main_001.dyn)
$> 
$> Primer18.0 created on: Fri Mar 18 12:31:07 2022
$> LS-DYNA version: R9.0
$> 
$------------------------------------------------------------------------------
$- This model has been developed under a contract with the Federal Highway
$- Administration (FHWA) by a Team which is now at the Center for Collision
$- Safety and Analysis at the George Mason University (GMU).
$-
$- The FE model is based on a 2010 TOYOTA YARIS and has been validated
$- for available impact test configurations.
$-
$- The model is continuously updated to improve its capabilities in
$- predicting responses in various impact scenarios.  However, the user must
$- verify his own results.  Neither CCSA, GMU, FHWA or NHTSA assume any
$- responsibility for the validity, accuracy, or applicability of any results
$- obtained from this model.
$-
$- We ask that the CCSA at GMU and the FHWA be acknowledged for any use of
$- this FE model resulting in papers and publications.
$-
$- Please feel free to contact us with any suggestions, comments, or
$- questions.
$-
$-     Rudolf Reichert         <reichert@gmu.edu>       (703) 993-4565
$-     Dhafer Marzougui        <dmarzoug@gmu.edu>       (703) 993-4680
$-     Steve Kan                  <cdkan@gmu.edu>       (703) 993-5896
$------------------------------------------------------------------------------
$- Model units:  tons,mm,N,sec
$------------------------------------------------------------------------------
$- version 2j
$------------------------------------------------------------------------------
$> end_saved_comments
$
$
$
$ ====================
$ MAT (Material) cards
$ ====================
$
*MAT_ELASTIC
   5000001   7.89E-9  210000.0       0.3       0.0       0.0       0.0
$
*MAT_SPRING_ELASTIC
   5000002     100.0
$
$
$
$ =============
$ SECTION cards
$ =============
$
*SECTION_DISCRETE
   5000002         0       0.0       0.0       0.0       0.0
       0.0       0.0
$
*SECTION_SOLID
   5000001         0         0
$
$
$
$ ==========
$ NODE cards
$ ==========
$
*NODE
 5000515      -2085.6599       398.54901       298.69101       0       0
 5000517      -2060.6599       373.54901       298.69101       0       0
 5000518      -2085.6599       373.54901       298.69101       0       0
$
$
$ =============
$ ELEMENT cards
$ =============
$
*ELEMENT_MASS_PART
$ Front under the hood (fluids, wires, etc.)
 2000166        0.011501             0.0               0       0
 2000168        0.011501             0.0               0       0
 2000164        0.011501             0.0               0       0
 2000163        0.011501             0.0               0       0
$ Cabin side (seatbelts, airbags, etc.)
 2000173       0.0120001             0.0               0       0
 2000319       0.0120001             0.0               0       0
$
$
$ =================
$ CONSTRAINED cards
$ =================
$
*CONSTRAINED_NODAL_RIGID_BODY
   5000568         0   5000587         0         0         0         0
$
$: Cross-reference summary for SET_NODE 5000587
$:---------------------------------------------
$: NODAL_RIGID_BODY 5000568
$
*SET_NODE_LIST
   5000587       0.0       0.0       0.0       0.0
   2820136   2820134   2820132   2820133   2820204   2820205   2820206   2820137
   2820135
$
$
$
$ =========
$ SET cards
$ =========
$
$
$: <No cross-references to SET_NODE 5000007 found>
$
*SET_NODE_LIST_TITLE
initial velocity: mass nodes
   5000007       0.0       0.0       0.0       0.0
   2829445   2829446   2829447   2829448   2829753   2829754   2829755   2829756
   2829757   2829758   2829759   2829760   3446608   3446609   3446610   3446611
   3446612   3446613   3446614   3446615   3446653   3446654   3446655   3446656
   3446657   3446658   3446659   3446660   3446661   3446662   3446675   3446676
   3446677   3446678   3446679   3446680   3446681   3446682   3480391   3480394
$
$
$: <No cross-references to SET_NODE 5100001 found>
$
*SET_NODE_LIST
   5100001       0.0       0.0       0.0       0.0
$-----------------------------IIHS Intrusion----------------------
   2116903   2120635   2117030   2117602   2120219   2117846   2118605   2110206
$-------------------------Mid A-pillar   left and right-------------
   2114196   2111130   2111509   2113404
$
$
$: Cross-reference summary for SET_PART 5000001
$:---------------------------------------------
$: SET_PART 1000001
$
*SET_PART_LIST_TITLE
solids interior contact
   5000001       0.0       0.2       0.0       0.0
   2000017   2000046   2000063   2000393   2000479   2000484
$
$
$: <No cross-references to SET_PART 5000002 found>
$
*SET_PART_LIST_TITLE
all vehicle contact
   5000002       0.0       0.0       0.0       0.0
   2000001   2000002   2000003   2000004   2000005   2000008   2000009   2000010
   2000012   2000013   2000014   2000015   2000016   2000017   2000018   2000020
   2000021   2000022   2000024   2000028   2000030   2000031   2000032   2000033
   2000035   2000036   2000038   2000039   2000040   2000041   2000042   2000044
   2000045   2000048   2000049   2000050   2000052   2000053   2000054   2000055
   2000056   2000057   2000058   2000059   2000060   2000061   2000063   2000064
   2000065   2000072   2000073   2000074   2000075   2000076   2000077   2000078
   2000079   2000080   2000081   2000082   2000083   2000097   2000098   2000099
   2000100   2000101   2000108   2000109   2000110   2000111   2000113   2000114
   2000115   2000116   2000117   2000118   2000119   2000120   2000121   2000122
   2000123   2000125   2000126   2000127   2000129   2000130   2000131   2000132
   2000133   2000134   2000135   2000136   2000137   2000138   2000139   2000140
   2000141   2000142   2000144   2000145   2000148   2000149   2000155   2000156
   2000157   2000158   2000159   2000160   2000161   2000162   2000163   2000164
   2000165   2000166   2000167   2000168   2000169   2000170   2000172   2000173
   2000174   2000176   2000177   2000178   2000179   2000180   2000181   2000190
   2000191   2000200   2000204   2000207   2000219   2000220   2000241   2000245
   2000253   2000259   2000260   2000268   2000269   2000270   2000285   2000291
   2000319   2000329   2000330   2000332   2000333   2000334   2000335   2000336
$ ... 8 like lines cut
$
$
$: <No cross-references to SET_PART 5000004 found>
$
*SET_PART_LIST_TITLE
initial velocity: non rotating parts
   5000004       0.0       0.0       0.0       0.0
   2000001   2000002   2000003   2000004   2000005   2000006   2000008   2000009
   2000010   2000012   2000013   2000014   2000015   2000016   2000017   2000018
   2000020   2000021   2000022   2000024   2000027   2000028   2000030   2000031
   2000032   2000033   2000034   2000035   2000036   2000038   2000039   2000040
   2000041   2000042   2000044   2000045   2000046   2000048   2000049   2000050
   2000052   2000053   2000054   2000055   2000056   2000057   2000058   2000059
   2000060   2000061   2000063   2000064   2000065   2000072   2000073   2000074
   2000075   2000076   2000077   2000078   2000079   2000080   2000081   2000082
   2000083   2000097   2000098   2000099   2000100   2000101   2000108   2000109
   2000110   2000111   2000113   2000114   2000115   2000116   2000117   2000118
   2000119   2000120   2000121   2000122   2000123   2000125   2000126   2000127
   2000129   2000130   2000131   2000132   2000133   2000134   2000135   2000136
   2000137   2000138   2000139   2000140   2000141   2000142   2000144   2000145
   2000148   2000149   2000155   2000156   2000157   2000158   2000159   2000160
   2000161   2000162   2000163   2000164   2000165   2000166   2000167   2000168
   2000169   2000170   2000172   2000173   2000174   2000176   2000177   2000178
   2000179   2000180   2000181   2000190   2000191   2000200   2000204   2000207
   2000219   2000220   2000241   2000245   2000253   2000259   2000260   2000268
   2000269   2000270   2000285   2000291   2000319   2000329   2000330   2000332
$ ... 11 like lines cut
$
$
$: <No cross-references to SET_PART 5000005 found>
$
*SET_PART_LIST_TITLE
initial velocity: front rotating parts
   5000005       0.0       0.0       0.0       0.0
$
$
*END
